Circuit: * C:\potenciostato\proyecto-final\ltspice\calculos version reducida\amplificador_i.asc

Direct Newton iteration failed to find .op point.  (Use ".option noopiter" to skip.)
Starting Gmin stepping
Gmin = 10
vernier = 0.5
Gmin = 1.86414
vernier = 0.25
vernier = 0.125
vernier = 0.0625
vernier = 0.03125
Gmin = 1.72749
vernier = 0.015625
vernier = 0.0078125
vernier = 0.00390625
Gmin = 1.71406
vernier = 0.00520833
vernier = 0.00260417
vernier = 0.00130208
Gmin = 1.70738
vernier = 0.00173611
vernier = 0.00231481
vernier = 0.00115741
vernier = 0.000578703
Gmin = 1.7027
vernier = 0.000771604
Gmin = 1.69974
vernier = 0.00102881
vernier = 0.00137174
vernier = 0.00068587
vernier = 0.000514403
Gmin = 1.6969
vernier = 0.00068587
Gmin = 1.69429
vernier = 0.000914493
vernier = 0.000457246
Gmin = 0
Gmin stepping failed

Starting source stepping with srcstepmethod=0
Source Step = 3.0303%
Source Step = 33.3333%
Source Step = 63.6364%
Source Step = 93.9394%
Source stepping succeeded in finding the operating point.


Date: Sat Dec 18 18:05:20 2021
Total elapsed time: 2.234 seconds.

tnom = 27
temp = 27
method = modified trap
totiter = 12506
traniter = 7762
tranpoints = 3882
accept = 2418
rejected = 1464
matrix size = 42
fillins = 110
solver = Normal
Matrix Compiler1: 6.21 KB object code size  6.4/3.0/[1.9]
Matrix Compiler2: 5.93 KB object code size  4.8/3.7/[1.4]

